Version 4
SHEET 1 1412 680
WIRE 560 64 416 64
WIRE 1008 64 864 64
WIRE 224 208 64 208
WIRE 304 208 224 208
WIRE 416 208 416 64
WIRE 416 208 384 208
WIRE 464 208 416 208
WIRE 560 240 560 64
WIRE 624 240 560 240
WIRE 864 240 864 64
WIRE 864 240 720 240
WIRE 1008 240 1008 64
WIRE 1008 240 944 240
WIRE 1104 240 1008 240
WIRE 1232 240 1184 240
WIRE 1312 240 1232 240
WIRE 1312 272 1312 240
WIRE 64 288 64 208
WIRE 224 320 224 208
WIRE 304 320 224 320
WIRE 464 320 384 320
WIRE 464 368 464 320
WIRE 784 368 464 368
WIRE 1104 368 880 368
WIRE 1232 368 1232 240
WIRE 1232 368 1184 368
WIRE 464 432 464 368
WIRE 464 432 240 432
SYMBOL res 400 192 R90
WINDOW 0 0 56 VBottom 2
WINDOW 3 32 56 VTop 2
SYMATTR InstName R1
SYMBOL res 400 304 R90
WINDOW 0 0 56 VBottom 2
WINDOW 3 32 56 VTop 2
SYMATTR InstName R2
SYMBOL voltage 64 272 R0
SYMATTR InstName V1
SYMBOL res 1200 224 R90
WINDOW 0 0 56 VBottom 2
WINDOW 3 32 56 VTop 2
SYMATTR InstName R4
SYMBOL voltage 1312 256 R0
SYMATTR InstName V2
SYMBOL res 1200 352 R90
WINDOW 0 0 56 VBottom 2
WINDOW 3 32 56 VTop 2
SYMATTR InstName R5
SYMBOL potentiometer_tapped 720 224 R90
SYMATTR InstName U1
SYMBOL potentiometer_tapped 880 352 R90
SYMATTR InstName U2
